85

N      49.264  61.368  61.996  N1     -0.800  
C      49.184  62.473  61.161  C2     0.575   
C      49.137  60.262  61.167  C3     0.576   
C      48.980  62.048  59.797  C4     -0.316  
C      48.948  60.688  59.801  C5     -0.317  
N      49.406  63.378  63.997  N6     -0.804  
C      49.348  64.216  62.892  C7     0.580   
C      49.472  64.219  65.100  C8     0.579   
C      49.448  65.596  64.673  C9     -0.316  
C      49.392  65.594  63.314  C10    -0.319  
N      49.527  61.374  66.003  N11    -0.799  
C      49.604  62.480  66.836  C12    0.576   
C      49.637  60.270  66.836  C13    0.573   
C      49.788  62.057  68.204  C14    -0.316  
C      49.810  60.698  68.203  C15    -0.317  
N      49.394  59.364  64.002  N16    -0.800  
C      49.293  58.523  62.902  C17    0.576   
C      49.497  58.527  65.104  C18    0.574   
C      49.454  57.148  64.682  C19    -0.317  
C      49.344  57.145  63.327  C20    -0.317  
C      49.246  63.820  61.550  C21    -0.466  
C      49.163  58.916  61.561  C22    -0.463  
C      49.613  58.923  66.444  C23    -0.462  
C      49.560  63.826  66.443  C24    -0.464  
C      48.830  55.832  58.500  C25    -0.031  
C      50.079  56.339  58.887  C26    -0.112  
C      50.191  57.329  59.867  C27    -0.207  
C      49.050  57.853  60.501  C28    0.171   
C      47.796  57.345  60.113  C29    -0.209  
C      47.692  56.355  59.132  C30    -0.111  
C      49.061  66.908  58.479  C31    -0.030  
C      50.288  66.363  58.886  C32    -0.109  
C      50.352  65.368  59.866  C33    -0.210  
C      49.185  64.877  60.479  C34    0.168   
C      47.954  65.421  60.067  C35    -0.205  
C      47.897  66.415  59.086  C36    -0.113  
C      49.746  66.914  69.515  C37    -0.030  
C      48.517  66.392  69.085  C38    -0.110  
C      48.452  65.399  68.104  C39    -0.210  
C      49.621  64.887  67.511  C40    0.169   
C      50.854  65.409  67.944  C41    -0.205  
C      50.911  66.401  68.927  C42    -0.113  
C      49.909  55.843  69.513  C43    -0.031  
C      48.664  56.350  69.112  C44    -0.112  
C      48.564  57.341  68.131  C45    -0.206  
C      49.712  57.864  67.510  C46    0.169   
C      50.961  57.356  67.912  C47    -0.209  
C      51.054  56.367  68.895  C48    -0.109  
O      47.546  54.327  57.144  O49    -0.701  
C      48.712  54.738  57.418  C50    0.639   
O      50.965  68.426  70.922  O51    -0.701  
C      49.813  68.015  70.596  C52    0.640   
O      48.711  68.420  71.069  O53    -0.701  
O      51.180  54.346  70.891  O54    -0.701  
C      50.015  54.746  70.593  C55    0.639   
O      48.930  54.331  71.097  O56    -0.701  
O      50.096  68.402  56.913  O57    -0.702  
C      48.995  68.014  57.404  C58    0.641   
O      47.845  68.448  57.099  O59    -0.702  
Co     49.399  61.370  63.999  Co60   1.050   
O      49.791  54.338  56.889  O61    -0.701  
H      48.858  62.709  58.951  H62    0.178   
H      48.797  60.028  58.959  H63    0.179   
H      49.477  66.451  65.333  H64    0.180   
H      49.374  66.448  62.652  H65    0.181   
H      49.902  62.720  69.050  H66    0.179   
H      49.945  60.038  69.049  H67    0.179   
H      49.506  56.295  65.344  H68    0.180   
H      49.298  56.289  62.669  H69    0.180   
H      50.969  55.939  58.408  H70    0.090   
H      51.173  57.699  60.151  H71    0.103   
H      46.897  57.733  60.586  H72    0.102   
H      46.718  55.973  58.841  H73    0.090   
H      51.198  66.737  58.425  H74    0.089   
H      51.318  64.969  60.167  H75    0.104   
H      47.035  65.058  60.522  H76    0.102   
H      46.940  66.826  58.777  H77    0.090   
H      47.606  66.782  69.530  H78    0.090   
H      47.484  65.017  67.786  H79    0.104   
H      51.774  65.030  67.505  H80    0.102   
H      51.870  66.794  69.253  H81    0.090   
H      47.768  55.950  69.580  H82    0.090   
H      47.585  57.713  67.837  H83    0.104   
H      51.866  57.744  67.449  H84    0.102   
H      52.025  55.986  69.199  H85    0.090   
